* NGSPICE file created from Decoder_parax.ext - technology: sky130A

.subckt Decoder_parax VGND n[0] n[1] n[2] p[0] a p[3] p[1] p[2] n[3] b VPWR
X0 VGND.t201 VPWR.t218 VGND.t200 VGND.t199 sky130_fd_pr__nfet_01v8 ad=0.143 pd=1.62 as=0 ps=0 w=0.55 l=4.73
X1 n[0].t3 net2 VGND.t67 VGND.t66 sky130_fd_pr__nfet_01v8 ad=0.08775 pd=0.92 as=0.08775 ps=0.92 w=0.65 l=0.15
X2 a_4903_5263# net1 VGND.t114 VGND.t113 sky130_fd_pr__nfet_01v8 ad=0.08775 pd=0.92 as=0.08775 ps=0.92 w=0.65 l=0.15
X3 VPWR.t96 VGND.t216 VPWR.t95 VPWR.t94 sky130_fd_pr__pfet_01v8_hvt ad=0.2262 pd=2.26 as=0 ps=0 w=0.87 l=1.05
X4 VPWR.t42 a_2879_2223# n[1].t7 VPWR.t41 sky130_fd_pr__pfet_01v8_hvt ad=0.3 pd=2.6 as=0.14 ps=1.28 w=1 l=0.15
X5 a_2557_2767# net2 VPWR.t128 VPWR.t127 sky130_fd_pr__pfet_01v8_hvt ad=0.135 pd=1.27 as=0.135 ps=1.27 w=1 l=0.15
X6 a_4903_5263# net2 p[3].t3 VGND.t65 sky130_fd_pr__nfet_01v8 ad=0.169 pd=1.82 as=0.08775 ps=0.92 w=0.65 l=0.15
X7 n[3].t7 a_5179_2223# VPWR.t210 VPWR.t62 sky130_fd_pr__pfet_01v8_hvt ad=0.14 pd=1.28 as=0.14 ps=1.28 w=1 l=0.15
X8 p[1].t3 a_5179_2767# VGND.t32 VGND.t31 sky130_fd_pr__nfet_01v8 ad=0.0588 pd=0.7 as=0.0588 ps=0.7 w=0.42 l=0.15
X9 VGND.t198 VPWR.t219 VGND.t197 VGND.t194 sky130_fd_pr__nfet_01v8 ad=0.143 pd=1.62 as=0 ps=0 w=0.55 l=0.59
X10 VGND.t24 a_2879_2223# n[1].t3 VGND.t23 sky130_fd_pr__nfet_01v8 ad=0.1218 pd=1.42 as=0.0588 ps=0.7 w=0.42 l=0.15
X11 VPWR.t81 a_4075_2767# n[2].t7 VPWR.t80 sky130_fd_pr__pfet_01v8_hvt ad=0.14 pd=1.28 as=0.14 ps=1.28 w=1 l=0.15
X12 n[3].t3 a_5179_2223# VGND.t215 VGND.t214 sky130_fd_pr__nfet_01v8 ad=0.0588 pd=0.7 as=0.0588 ps=0.7 w=0.42 l=0.15
X13 VGND.t196 VPWR.t220 VGND.t195 VGND.t194 sky130_fd_pr__nfet_01v8 ad=0.143 pd=1.62 as=0 ps=0 w=0.55 l=0.59
X14 VPWR.t126 net2 a_2557_2767# VPWR.t125 sky130_fd_pr__pfet_01v8_hvt ad=0.135 pd=1.27 as=0.135 ps=1.27 w=1 l=0.15
X15 VGND.t193 VPWR.t221 VGND.t192 VGND.t191 sky130_fd_pr__nfet_01v8 ad=0.143 pd=1.62 as=0 ps=0 w=0.55 l=1.05
X16 VPWR.t98 VGND.t217 VPWR.t97 VPWR.t54 sky130_fd_pr__pfet_01v8_hvt ad=0.2262 pd=2.26 as=0 ps=0 w=0.87 l=0.59
X17 VPWR.t5 _04_ a_5179_2767# VPWR.t4 sky130_fd_pr__pfet_01v8_hvt ad=0.165 pd=1.33 as=0.265 ps=2.53 w=1 l=0.15
X18 a_4903_5263# net2 p[3].t2 VGND.t64 sky130_fd_pr__nfet_01v8 ad=0.08775 pd=0.92 as=0.08775 ps=0.92 w=0.65 l=0.15
X19 VGND.t190 VPWR.t222 VGND.t189 VGND.t171 sky130_fd_pr__nfet_01v8 ad=0.143 pd=1.62 as=0 ps=0 w=0.55 l=4.73
X20 a_3523_2767# net2 VGND.t63 VGND.t62 sky130_fd_pr__nfet_01v8 ad=0.1092 pd=1.36 as=0.1092 ps=1.36 w=0.42 l=0.15
X21 VPWR.t157 VGND.t218 VPWR.t156 VPWR.t155 sky130_fd_pr__pfet_01v8_hvt ad=0.2262 pd=2.26 as=0 ps=0 w=0.87 l=4.73
X22 VPWR.t209 a_5179_2223# n[3].t6 VPWR.t60 sky130_fd_pr__pfet_01v8_hvt ad=0.3 pd=2.6 as=0.14 ps=1.28 w=1 l=0.15
X23 VGND.t30 a_5179_2767# p[1].t2 VGND.t29 sky130_fd_pr__nfet_01v8 ad=0.1218 pd=1.42 as=0.0588 ps=0.7 w=0.42 l=0.15
X24 VGND.t112 net1 a_4819_2883# VGND.t111 sky130_fd_pr__nfet_01v8 ad=0.101875 pd=0.99 as=0.0567 ps=0.69 w=0.42 l=0.15
X25 p[3].t7 net2 VPWR.t124 VPWR.t123 sky130_fd_pr__pfet_01v8_hvt ad=0.135 pd=1.27 as=0.135 ps=1.27 w=1 l=0.15
X26 VGND.t110 net1 a_4837_3339# VGND.t109 sky130_fd_pr__nfet_01v8 ad=0.1118 pd=1.04 as=0.0567 ps=0.69 w=0.42 l=0.15
X27 n[2].t6 a_4075_2767# VPWR.t79 VPWR.t78 sky130_fd_pr__pfet_01v8_hvt ad=0.14 pd=1.28 as=0.14 ps=1.28 w=1 l=0.15
X28 VPWR.t159 VGND.t219 VPWR.t158 VPWR.t141 sky130_fd_pr__pfet_01v8_hvt ad=0.2262 pd=2.26 as=0 ps=0 w=0.87 l=0.59
X29 VGND.t213 a_5179_2223# n[3].t2 VGND.t212 sky130_fd_pr__nfet_01v8 ad=0.1218 pd=1.42 as=0.0588 ps=0.7 w=0.42 l=0.15
X30 p[2].t7 a_5179_4399# VPWR.t19 VPWR.t18 sky130_fd_pr__pfet_01v8_hvt ad=0.14 pd=1.28 as=0.165 ps=1.33 w=1 l=0.15
X31 VGND.t120 _05_ a_5179_4399# VGND.t119 sky130_fd_pr__nfet_01v8 ad=0.07035 pd=0.755 as=0.1113 ps=1.37 w=0.42 l=0.15
X32 p[0].t7 a_5179_3311# VPWR.t194 VPWR.t193 sky130_fd_pr__pfet_01v8_hvt ad=0.14 pd=1.28 as=0.165 ps=1.33 w=1 l=0.15
X33 n[0].t11 net1 a_2557_2767# VPWR.t186 sky130_fd_pr__pfet_01v8_hvt ad=0.135 pd=1.27 as=0.135 ps=1.27 w=1 l=0.15
X34 VGND.t188 VPWR.t223 VGND.t187 VGND.t168 sky130_fd_pr__nfet_01v8 ad=0.143 pd=1.62 as=0 ps=0 w=0.55 l=0.59
X35 _04_ a_4819_2883# VGND.t42 VGND.t41 sky130_fd_pr__nfet_01v8 ad=0.1755 pd=1.84 as=0.101875 ps=0.99 w=0.65 l=0.15
X36 VGND.t186 VPWR.t224 VGND.t185 VGND.t165 sky130_fd_pr__nfet_01v8 ad=0.143 pd=1.62 as=0 ps=0 w=0.55 l=4.73
X37 VPWR.t198 _01_ a_4075_2767# VPWR.t197 sky130_fd_pr__pfet_01v8_hvt ad=0.165 pd=1.33 as=0.265 ps=2.53 w=1 l=0.15
X38 p[0].t3 a_5179_3311# VGND.t118 VGND.t27 sky130_fd_pr__nfet_01v8 ad=0.0588 pd=0.7 as=0.07035 ps=0.755 w=0.42 l=0.15
X39 VPWR.t77 a_4075_2767# n[2].t5 VPWR.t76 sky130_fd_pr__pfet_01v8_hvt ad=0.3 pd=2.6 as=0.14 ps=1.28 w=1 l=0.15
X40 VPWR.t8 VGND.t220 VPWR.t7 VPWR.t6 sky130_fd_pr__pfet_01v8_hvt ad=0.2262 pd=2.26 as=0 ps=0 w=0.87 l=0.59
X41 VGND.t77 _00_ a_2879_2223# VGND.t76 sky130_fd_pr__nfet_01v8 ad=0.07035 pd=0.755 as=0.1113 ps=1.37 w=0.42 l=0.15
X42 VPWR.t17 a_5179_4399# p[2].t6 VPWR.t16 sky130_fd_pr__pfet_01v8_hvt ad=0.14 pd=1.28 as=0.14 ps=1.28 w=1 l=0.15
X43 n[2].t3 a_4075_2767# VGND.t40 VGND.t39 sky130_fd_pr__nfet_01v8 ad=0.0588 pd=0.7 as=0.07035 ps=0.755 w=0.42 l=0.15
X44 VPWR.t192 a_5179_3311# p[0].t6 VPWR.t191 sky130_fd_pr__pfet_01v8_hvt ad=0.14 pd=1.28 as=0.14 ps=1.28 w=1 l=0.15
X45 a_5095_5737# a_4903_5493# VGND.t75 VGND.t74 sky130_fd_pr__nfet_01v8 ad=0.0567 pd=0.69 as=0.1575 ps=1.17 w=0.42 l=0.15
X46 VPWR.t11 VGND.t221 VPWR.t10 VPWR.t9 sky130_fd_pr__pfet_01v8_hvt ad=0.2262 pd=2.26 as=0 ps=0 w=0.87 l=1.05
X47 n[0].t10 net1 a_2557_2767# VPWR.t185 sky130_fd_pr__pfet_01v8_hvt ad=0.135 pd=1.27 as=0.27 ps=2.54 w=1 l=0.15
X48 VPWR.t203 VGND.t222 VPWR.t202 VPWR.t20 sky130_fd_pr__pfet_01v8_hvt ad=0.2262 pd=2.26 as=0 ps=0 w=0.87 l=0.59
X49 VGND.t61 net2 a_4760_2473# VGND.t60 sky130_fd_pr__nfet_01v8 ad=0.10025 pd=0.985 as=0.0567 ps=0.69 w=0.42 l=0.15
X50 VGND.t117 a_5179_3311# p[0].t2 VGND.t25 sky130_fd_pr__nfet_01v8 ad=0.0588 pd=0.7 as=0.0588 ps=0.7 w=0.42 l=0.15
X51 VPWR.t184 net1 p[3].t11 VPWR.t183 sky130_fd_pr__pfet_01v8_hvt ad=0.135 pd=1.27 as=0.135 ps=1.27 w=1 l=0.15
X52 VPWR.t206 VGND.t223 VPWR.t205 VPWR.t204 sky130_fd_pr__pfet_01v8_hvt ad=0.2262 pd=2.26 as=0 ps=0 w=0.87 l=1.05
X53 VGND.t184 VPWR.t225 VGND.t183 VGND.t182 sky130_fd_pr__nfet_01v8 ad=0.143 pd=1.62 as=0 ps=0 w=0.55 l=1.97
X54 a_4837_3339# net2 a_4751_3339# VGND.t59 sky130_fd_pr__nfet_01v8 ad=0.0567 pd=0.69 as=0.1176 ps=1.4 w=0.42 l=0.15
X55 VGND.t181 VPWR.t226 VGND.t180 VGND.t179 sky130_fd_pr__nfet_01v8 ad=0.143 pd=1.62 as=0 ps=0 w=0.55 l=1.05
X56 VPWR.t214 VGND.t224 VPWR.t213 VPWR.t68 sky130_fd_pr__pfet_01v8_hvt ad=0.2262 pd=2.26 as=0 ps=0 w=0.87 l=4.73
X57 VGND.t108 net1 a_3793_3133# VGND.t107 sky130_fd_pr__nfet_01v8 ad=0.1013 pd=0.99 as=0.0504 ps=0.66 w=0.42 l=0.15
X58 p[2].t5 a_5179_4399# VPWR.t15 VPWR.t14 sky130_fd_pr__pfet_01v8_hvt ad=0.14 pd=1.28 as=0.14 ps=1.28 w=1 l=0.15
X59 VGND.t178 VPWR.t227 VGND.t177 VGND.t160 sky130_fd_pr__nfet_01v8 ad=0.143 pd=1.62 as=0 ps=0 w=0.55 l=0.59
X60 VGND.t38 a_4075_2767# n[2].t2 VGND.t37 sky130_fd_pr__nfet_01v8 ad=0.0588 pd=0.7 as=0.0588 ps=0.7 w=0.42 l=0.15
X61 VPWR.t154 a_2327_5487# net1 VPWR.t153 sky130_fd_pr__pfet_01v8_hvt ad=0.265 pd=2.53 as=0.135 ps=1.27 w=1 l=0.15
X62 VPWR.t217 VGND.t225 VPWR.t216 VPWR.t215 sky130_fd_pr__pfet_01v8_hvt ad=0.2262 pd=2.26 as=0 ps=0 w=0.87 l=4.73
X63 p[0].t5 a_5179_3311# VPWR.t190 VPWR.t189 sky130_fd_pr__pfet_01v8_hvt ad=0.14 pd=1.28 as=0.14 ps=1.28 w=1 l=0.15
X64 VGND.t176 VPWR.t228 VGND.t175 VGND.t174 sky130_fd_pr__nfet_01v8 ad=0.143 pd=1.62 as=0 ps=0 w=0.55 l=0.59
X65 VGND.t106 net1 a_4903_5263# VGND.t94 sky130_fd_pr__nfet_01v8 ad=0.08775 pd=0.92 as=0.169 ps=1.82 w=0.65 l=0.15
X66 VPWR.t122 net2 a_2557_2767# VPWR.t121 sky130_fd_pr__pfet_01v8_hvt ad=0.135 pd=1.27 as=0.135 ps=1.27 w=1 l=0.15
X67 p[0].t1 a_5179_3311# VGND.t116 VGND.t31 sky130_fd_pr__nfet_01v8 ad=0.0588 pd=0.7 as=0.0588 ps=0.7 w=0.42 l=0.15
X68 net2 a_4312_5461# VPWR.t163 VPWR.t162 sky130_fd_pr__pfet_01v8_hvt ad=0.135 pd=1.27 as=0.265 ps=2.53 w=1 l=0.15
X69 VPWR.t182 net1 p[3].t10 VPWR.t181 sky130_fd_pr__pfet_01v8_hvt ad=0.135 pd=1.27 as=0.135 ps=1.27 w=1 l=0.15
X70 VGND.t173 VPWR.t229 VGND.t172 VGND.t171 sky130_fd_pr__nfet_01v8 ad=0.143 pd=1.62 as=0 ps=0 w=0.55 l=4.73
X71 VPWR.t150 _02_ a_5179_2223# VPWR.t4 sky130_fd_pr__pfet_01v8_hvt ad=0.165 pd=1.33 as=0.265 ps=2.53 w=1 l=0.15
X72 VPWR.t13 a_5179_4399# p[2].t4 VPWR.t12 sky130_fd_pr__pfet_01v8_hvt ad=0.3 pd=2.6 as=0.14 ps=1.28 w=1 l=0.15
X73 VPWR.t120 net2 p[3].t6 VPWR.t119 sky130_fd_pr__pfet_01v8_hvt ad=0.26 pd=2.52 as=0.135 ps=1.27 w=1 l=0.15
X74 VPWR.t91 VGND.t226 VPWR.t90 VPWR.t82 sky130_fd_pr__pfet_01v8_hvt ad=0.2262 pd=2.26 as=0 ps=0 w=0.87 l=0.59
X75 n[2].t1 a_4075_2767# VGND.t36 VGND.t35 sky130_fd_pr__nfet_01v8 ad=0.0588 pd=0.7 as=0.0588 ps=0.7 w=0.42 l=0.15
X76 VPWR.t93 VGND.t227 VPWR.t92 VPWR.t85 sky130_fd_pr__pfet_01v8_hvt ad=0.2262 pd=2.26 as=0 ps=0 w=0.87 l=4.73
X77 VPWR.t188 a_5179_3311# p[0].t4 VPWR.t187 sky130_fd_pr__pfet_01v8_hvt ad=0.3 pd=2.6 as=0.14 ps=1.28 w=1 l=0.15
X78 VGND.t58 net2 a_4627_3127# VGND.t57 sky130_fd_pr__nfet_01v8 ad=0.1575 pd=1.17 as=0.1092 ps=1.36 w=0.42 l=0.15
X79 VGND.t105 net1 n[0].t7 VGND.t104 sky130_fd_pr__nfet_01v8 ad=0.08775 pd=0.92 as=0.08775 ps=0.92 w=0.65 l=0.15
X80 VPWR.t56 VGND.t228 VPWR.t55 VPWR.t54 sky130_fd_pr__pfet_01v8_hvt ad=0.2262 pd=2.26 as=0 ps=0 w=0.87 l=0.59
X81 VPWR.t59 VGND.t229 VPWR.t58 VPWR.t57 sky130_fd_pr__pfet_01v8_hvt ad=0.2262 pd=2.26 as=0 ps=0 w=0.87 l=1.97
X82 p[2].t3 a_5179_4399# VGND.t13 VGND.t12 sky130_fd_pr__nfet_01v8 ad=0.0588 pd=0.7 as=0.07035 ps=0.755 w=0.42 l=0.15
X83 VPWR.t51 VGND.t230 VPWR.t50 VPWR.t49 sky130_fd_pr__pfet_01v8_hvt ad=0.2262 pd=2.26 as=0 ps=0 w=0.87 l=4.73
X84 VPWR.t180 net1 a_3703_2767# VPWR.t179 sky130_fd_pr__pfet_01v8_hvt ad=0.2279 pd=1.74 as=0.0609 ps=0.71 w=0.42 l=0.15
X85 VGND.t115 a_5179_3311# p[0].t0 VGND.t29 sky130_fd_pr__nfet_01v8 ad=0.1218 pd=1.42 as=0.0588 ps=0.7 w=0.42 l=0.15
X86 a_3793_3133# a_3523_2767# a_3703_2767# VGND.t1 sky130_fd_pr__nfet_01v8 ad=0.0504 pd=0.66 as=0.1092 ps=1.36 w=0.42 l=0.15
X87 p[3].t1 net2 a_4903_5263# VGND.t56 sky130_fd_pr__nfet_01v8 ad=0.08775 pd=0.92 as=0.08775 ps=0.92 w=0.65 l=0.15
X88 _01_ a_3703_2767# VGND.t15 VGND.t14 sky130_fd_pr__nfet_01v8 ad=0.169 pd=1.82 as=0.1013 ps=0.99 w=0.65 l=0.15
X89 VGND.t170 VPWR.t230 VGND.t169 VGND.t168 sky130_fd_pr__nfet_01v8 ad=0.143 pd=1.62 as=0 ps=0 w=0.55 l=0.59
X90 _02_ a_4751_3339# VPWR.t130 VPWR.t129 sky130_fd_pr__pfet_01v8_hvt ad=0.475 pd=2.95 as=0.16655 ps=1.39 w=1 l=0.15
X91 VPWR.t118 net2 p[3].t5 VPWR.t117 sky130_fd_pr__pfet_01v8_hvt ad=0.135 pd=1.27 as=0.135 ps=1.27 w=1 l=0.15
X92 VGND.t167 VPWR.t231 VGND.t166 VGND.t165 sky130_fd_pr__nfet_01v8 ad=0.143 pd=1.62 as=0 ps=0 w=0.55 l=4.73
X93 VGND.t87 a_4312_5461# net2 VGND.t86 sky130_fd_pr__nfet_01v8 ad=0.097 pd=0.975 as=0.08775 ps=0.92 w=0.65 l=0.15
X94 VGND.t34 a_4075_2767# n[2].t0 VGND.t33 sky130_fd_pr__nfet_01v8 ad=0.1218 pd=1.42 as=0.0588 ps=0.7 w=0.42 l=0.15
X95 VGND.t164 VPWR.t232 VGND.t163 VGND.t141 sky130_fd_pr__nfet_01v8 ad=0.143 pd=1.62 as=0 ps=0 w=0.55 l=0.59
X96 VGND.t44 a.t0 a_2327_5487# VGND.t43 sky130_fd_pr__nfet_01v8 ad=0.097 pd=0.975 as=0.1092 ps=1.36 w=0.42 l=0.15
X97 VPWR.t116 net2 a_2599_3677# VPWR.t115 sky130_fd_pr__pfet_01v8_hvt ad=0.2279 pd=1.74 as=0.0609 ps=0.71 w=0.42 l=0.15
X98 VGND.t103 net1 n[0].t6 VGND.t102 sky130_fd_pr__nfet_01v8 ad=0.08775 pd=0.92 as=0.08775 ps=0.92 w=0.65 l=0.15
X99 VGND.t11 a_5179_4399# p[2].t2 VGND.t10 sky130_fd_pr__nfet_01v8 ad=0.0588 pd=0.7 as=0.0588 ps=0.7 w=0.42 l=0.15
X100 a_4312_5461# b.t0 VGND.t5 VGND.t4 sky130_fd_pr__nfet_01v8 ad=0.1092 pd=1.36 as=0.097 ps=0.975 w=0.42 l=0.15
X101 VPWR.t53 VGND.t231 VPWR.t52 VPWR.t43 sky130_fd_pr__pfet_01v8_hvt ad=0.2262 pd=2.26 as=0 ps=0 w=0.87 l=0.59
X102 _03_ a_4760_2473# VPWR.t132 VPWR.t131 sky130_fd_pr__pfet_01v8_hvt ad=0.34 pd=2.68 as=0.14575 ps=1.335 w=1 l=0.15
X103 a_4901_2883# a_4627_3127# a_4819_2883# VPWR.t201 sky130_fd_pr__pfet_01v8_hvt ad=0.0441 pd=0.63 as=0.1092 ps=1.36 w=0.42 l=0.15
X104 net1 a_2327_5487# VGND.t83 VGND.t82 sky130_fd_pr__nfet_01v8 ad=0.08775 pd=0.92 as=0.097 ps=0.975 w=0.65 l=0.15
X105 _05_ a_5095_5737# VGND.t73 VGND.t72 sky130_fd_pr__nfet_01v8 ad=0.1755 pd=1.84 as=0.101875 ps=0.99 w=0.65 l=0.15
X106 VPWR.t100 a.t1 a_2327_5487# VPWR.t99 sky130_fd_pr__pfet_01v8_hvt ad=0.149 pd=1.325 as=0.1664 ps=1.8 w=0.64 l=0.15
X107 VPWR.t28 VGND.t232 VPWR.t27 VPWR.t26 sky130_fd_pr__pfet_01v8_hvt ad=0.2262 pd=2.26 as=0 ps=0 w=0.87 l=0.59
X108 a_4819_2883# a_4627_3127# VGND.t207 VGND.t206 sky130_fd_pr__nfet_01v8 ad=0.0567 pd=0.69 as=0.1575 ps=1.17 w=0.42 l=0.15
X109 VPWR.t30 VGND.t233 VPWR.t29 VPWR.t6 sky130_fd_pr__pfet_01v8_hvt ad=0.2262 pd=2.26 as=0 ps=0 w=0.87 l=0.59
X110 _04_ a_4819_2883# VPWR.t89 VPWR.t88 sky130_fd_pr__pfet_01v8_hvt ad=0.27 pd=2.54 as=0.14825 ps=1.34 w=1 l=0.15
X111 a_4312_5461# b.t1 VPWR.t212 VPWR.t211 sky130_fd_pr__pfet_01v8_hvt ad=0.1664 pd=1.8 as=0.149 ps=1.325 w=0.64 l=0.15
X112 a_5177_5737# a_4903_5493# a_5095_5737# VPWR.t135 sky130_fd_pr__pfet_01v8_hvt ad=0.0441 pd=0.63 as=0.1092 ps=1.36 w=0.42 l=0.15
X113 VGND.t162 VPWR.t233 VGND.t161 VGND.t160 sky130_fd_pr__nfet_01v8 ad=0.143 pd=1.62 as=0 ps=0 w=0.55 l=0.59
X114 p[2].t1 a_5179_4399# VGND.t9 VGND.t8 sky130_fd_pr__nfet_01v8 ad=0.0588 pd=0.7 as=0.0588 ps=0.7 w=0.42 l=0.15
X115 VGND.t55 net2 a_5095_5737# VGND.t54 sky130_fd_pr__nfet_01v8 ad=0.101875 pd=0.99 as=0.0567 ps=0.69 w=0.42 l=0.15
X116 a_4842_2473# net1 a_4760_2473# VPWR.t178 sky130_fd_pr__pfet_01v8_hvt ad=0.0441 pd=0.63 as=0.1092 ps=1.36 w=0.42 l=0.15
X117 VPWR.t114 net2 a_3523_2767# VPWR.t113 sky130_fd_pr__pfet_01v8_hvt ad=0.0714 pd=0.76 as=0.1092 ps=1.36 w=0.42 l=0.15
X118 VGND.t53 net2 n[0].t2 VGND.t52 sky130_fd_pr__nfet_01v8 ad=0.182 pd=1.86 as=0.08775 ps=0.92 w=0.65 l=0.15
X119 VGND.t159 VPWR.t234 VGND.t158 VGND.t129 sky130_fd_pr__nfet_01v8 ad=0.143 pd=1.62 as=0 ps=0 w=0.55 l=0.59
X120 VGND.t157 VPWR.t235 VGND.t156 VGND.t155 sky130_fd_pr__nfet_01v8 ad=0.143 pd=1.62 as=0 ps=0 w=0.55 l=4.73
X121 VGND.t101 net1 a_4903_5263# VGND.t100 sky130_fd_pr__nfet_01v8 ad=0.08775 pd=0.92 as=0.08775 ps=0.92 w=0.65 l=0.15
X122 VPWR.t70 VGND.t234 VPWR.t69 VPWR.t68 sky130_fd_pr__pfet_01v8_hvt ad=0.2262 pd=2.26 as=0 ps=0 w=0.87 l=4.73
X123 VGND.t3 _04_ a_5179_2767# VGND.t2 sky130_fd_pr__nfet_01v8 ad=0.07035 pd=0.755 as=0.1113 ps=1.37 w=0.42 l=0.15
X124 p[1].t7 a_5179_2767# VPWR.t67 VPWR.t66 sky130_fd_pr__pfet_01v8_hvt ad=0.14 pd=1.28 as=0.165 ps=1.33 w=1 l=0.15
X125 VPWR.t196 _05_ a_5179_4399# VPWR.t195 sky130_fd_pr__pfet_01v8_hvt ad=0.165 pd=1.33 as=0.265 ps=2.53 w=1 l=0.15
X126 VGND.t154 VPWR.t236 VGND.t153 VGND.t132 sky130_fd_pr__nfet_01v8 ad=0.143 pd=1.62 as=0 ps=0 w=0.55 l=4.73
X127 VGND.t152 VPWR.t237 VGND.t151 VGND.t150 sky130_fd_pr__nfet_01v8 ad=0.143 pd=1.62 as=0 ps=0 w=0.55 l=4.73
X128 VPWR.t34 _03_ a_5179_3311# VPWR.t33 sky130_fd_pr__pfet_01v8_hvt ad=0.165 pd=1.33 as=0.265 ps=2.53 w=1 l=0.15
X129 VGND.t7 a_5179_4399# p[2].t0 VGND.t6 sky130_fd_pr__nfet_01v8 ad=0.1218 pd=1.42 as=0.0588 ps=0.7 w=0.42 l=0.15
X130 VGND.t79 _02_ a_5179_2223# VGND.t78 sky130_fd_pr__nfet_01v8 ad=0.07035 pd=0.755 as=0.1113 ps=1.37 w=0.42 l=0.15
X131 VPWR.t177 net1 a_4901_2883# VPWR.t176 sky130_fd_pr__pfet_01v8_hvt ad=0.14825 pd=1.34 as=0.0441 ps=0.63 w=0.42 l=0.15
X132 VPWR.t73 VGND.t235 VPWR.t72 VPWR.t71 sky130_fd_pr__pfet_01v8_hvt ad=0.2262 pd=2.26 as=0 ps=0 w=0.87 l=0.59
X133 VGND.t51 net2 n[0].t1 VGND.t50 sky130_fd_pr__nfet_01v8 ad=0.08775 pd=0.92 as=0.08775 ps=0.92 w=0.65 l=0.15
X134 VGND.t149 VPWR.t238 VGND.t148 VGND.t147 sky130_fd_pr__nfet_01v8 ad=0.143 pd=1.62 as=0 ps=0 w=0.55 l=0.59
X135 p[3].t9 net1 VPWR.t175 VPWR.t174 sky130_fd_pr__pfet_01v8_hvt ad=0.135 pd=1.27 as=0.26 ps=2.52 w=1 l=0.15
X136 _00_ a_2599_3677# VPWR.t200 VPWR.t199 sky130_fd_pr__pfet_01v8_hvt ad=0.26 pd=2.52 as=0.2279 ps=1.74 w=1 l=0.15
X137 a_4760_2473# net1 VGND.t99 VGND.t98 sky130_fd_pr__nfet_01v8 ad=0.0567 pd=0.69 as=0.1092 ps=1.36 w=0.42 l=0.15
X138 VGND.t146 VPWR.t239 VGND.t145 VGND.t144 sky130_fd_pr__nfet_01v8 ad=0.143 pd=1.62 as=0 ps=0 w=0.55 l=1.97
X139 VPWR.t84 VGND.t236 VPWR.t83 VPWR.t82 sky130_fd_pr__pfet_01v8_hvt ad=0.2262 pd=2.26 as=0 ps=0 w=0.87 l=0.59
X140 VPWR.t65 a_5179_2767# p[1].t6 VPWR.t64 sky130_fd_pr__pfet_01v8_hvt ad=0.14 pd=1.28 as=0.14 ps=1.28 w=1 l=0.15
X141 VPWR.t87 VGND.t237 VPWR.t86 VPWR.t85 sky130_fd_pr__pfet_01v8_hvt ad=0.2262 pd=2.26 as=0 ps=0 w=0.87 l=4.73
X142 VPWR.t173 net1 a_4751_3339# VPWR.t172 sky130_fd_pr__pfet_01v8_hvt ad=0.16655 pd=1.39 as=0.0567 ps=0.69 w=0.42 l=0.15
X143 VGND.t49 net2 a_2689_3311# VGND.t48 sky130_fd_pr__nfet_01v8 ad=0.1013 pd=0.99 as=0.0504 ps=0.66 w=0.42 l=0.15
X144 VGND.t203 _01_ a_4075_2767# VGND.t202 sky130_fd_pr__nfet_01v8 ad=0.07035 pd=0.755 as=0.1113 ps=1.37 w=0.42 l=0.15
X145 VPWR.t112 net2 a_5177_5737# VPWR.t111 sky130_fd_pr__pfet_01v8_hvt ad=0.14825 pd=1.34 as=0.0441 ps=0.63 w=0.42 l=0.15
X146 VPWR.t146 VGND.t238 VPWR.t145 VPWR.t144 sky130_fd_pr__pfet_01v8_hvt ad=0.2262 pd=2.26 as=0 ps=0 w=0.87 l=4.73
X147 VGND.t143 VPWR.t240 VGND.t142 VGND.t141 sky130_fd_pr__nfet_01v8 ad=0.143 pd=1.62 as=0 ps=0 w=0.55 l=0.59
X148 _02_ a_4751_3339# VGND.t69 VGND.t68 sky130_fd_pr__nfet_01v8 ad=0.182 pd=1.86 as=0.1118 ps=1.04 w=0.65 l=0.15
X149 VGND.t140 VPWR.t241 VGND.t139 VGND.t138 sky130_fd_pr__nfet_01v8 ad=0.143 pd=1.62 as=0 ps=0 w=0.55 l=4.73
X150 n[0].t0 net2 VGND.t47 VGND.t46 sky130_fd_pr__nfet_01v8 ad=0.08775 pd=0.92 as=0.08775 ps=0.92 w=0.65 l=0.15
X151 a_2557_2767# net1 n[0].t9 VPWR.t171 sky130_fd_pr__pfet_01v8_hvt ad=0.135 pd=1.27 as=0.135 ps=1.27 w=1 l=0.15
X152 p[3].t0 net2 a_4903_5263# VGND.t45 sky130_fd_pr__nfet_01v8 ad=0.08775 pd=0.92 as=0.08775 ps=0.92 w=0.65 l=0.15
X153 VPWR.t149 VGND.t239 VPWR.t148 VPWR.t147 sky130_fd_pr__pfet_01v8_hvt ad=0.2262 pd=2.26 as=0 ps=0 w=0.87 l=4.73
X154 a_2419_3677# net1 VGND.t97 VGND.t96 sky130_fd_pr__nfet_01v8 ad=0.1092 pd=1.36 as=0.1092 ps=1.36 w=0.42 l=0.15
X155 p[1].t5 a_5179_2767# VPWR.t63 VPWR.t62 sky130_fd_pr__pfet_01v8_hvt ad=0.14 pd=1.28 as=0.14 ps=1.28 w=1 l=0.15
X156 VPWR.t140 VGND.t240 VPWR.t139 VPWR.t138 sky130_fd_pr__pfet_01v8_hvt ad=0.2262 pd=2.26 as=0 ps=0 w=0.87 l=0.59
X157 p[3].t4 net2 VPWR.t104 VPWR.t103 sky130_fd_pr__pfet_01v8_hvt ad=0.135 pd=1.27 as=0.135 ps=1.27 w=1 l=0.15
X158 n[1].t6 a_2879_2223# VPWR.t40 VPWR.t39 sky130_fd_pr__pfet_01v8_hvt ad=0.14 pd=1.28 as=0.165 ps=1.33 w=1 l=0.15
X159 _01_ a_3703_2767# VPWR.t32 VPWR.t31 sky130_fd_pr__pfet_01v8_hvt ad=0.26 pd=2.52 as=0.2279 ps=1.74 w=1 l=0.15
X160 VGND.t95 net1 a_4903_5493# VGND.t94 sky130_fd_pr__nfet_01v8 ad=0.1575 pd=1.17 as=0.1092 ps=1.36 w=0.42 l=0.15
X161 _03_ a_4760_2473# VGND.t71 VGND.t70 sky130_fd_pr__nfet_01v8 ad=0.169 pd=1.82 as=0.10025 ps=0.985 w=0.65 l=0.15
X162 VGND.t137 VPWR.t242 VGND.t136 VGND.t135 sky130_fd_pr__nfet_01v8 ad=0.143 pd=1.62 as=0 ps=0 w=0.55 l=0.59
X163 VPWR.t143 VGND.t241 VPWR.t142 VPWR.t141 sky130_fd_pr__pfet_01v8_hvt ad=0.2262 pd=2.26 as=0 ps=0 w=0.87 l=0.59
X164 n[0].t5 net1 VGND.t93 VGND.t92 sky130_fd_pr__nfet_01v8 ad=0.08775 pd=0.92 as=0.08775 ps=0.92 w=0.65 l=0.15
X165 VGND.t134 VPWR.t243 VGND.t133 VGND.t132 sky130_fd_pr__nfet_01v8 ad=0.143 pd=1.62 as=0 ps=0 w=0.55 l=1.05
X166 VPWR.t45 VGND.t242 VPWR.t44 VPWR.t43 sky130_fd_pr__pfet_01v8_hvt ad=0.2262 pd=2.26 as=0 ps=0 w=0.87 l=0.59
X167 n[1].t2 a_2879_2223# VGND.t22 VGND.t21 sky130_fd_pr__nfet_01v8 ad=0.0588 pd=0.7 as=0.07035 ps=0.755 w=0.42 l=0.15
X168 VPWR.t48 VGND.t243 VPWR.t47 VPWR.t46 sky130_fd_pr__pfet_01v8_hvt ad=0.2262 pd=2.26 as=0 ps=0 w=0.87 l=1.97
X169 a_2557_2767# net1 n[0].t8 VPWR.t170 sky130_fd_pr__pfet_01v8_hvt ad=0.135 pd=1.27 as=0.135 ps=1.27 w=1 l=0.15
X170 a_2689_3311# a_2419_3677# a_2599_3677# VGND.t0 sky130_fd_pr__nfet_01v8 ad=0.0504 pd=0.66 as=0.1092 ps=1.36 w=0.42 l=0.15
X171 VPWR.t61 a_5179_2767# p[1].t4 VPWR.t60 sky130_fd_pr__pfet_01v8_hvt ad=0.3 pd=2.6 as=0.14 ps=1.28 w=1 l=0.15
X172 VGND.t81 a_2327_5487# net1 VGND.t80 sky130_fd_pr__nfet_01v8 ad=0.17225 pd=1.83 as=0.08775 ps=0.92 w=0.65 l=0.15
X173 a_3703_2767# a_3523_2767# VPWR.t3 VPWR.t2 sky130_fd_pr__pfet_01v8_hvt ad=0.0609 pd=0.71 as=0.0714 ps=0.76 w=0.42 l=0.15
X174 VGND.t131 VPWR.t244 VGND.t130 VGND.t129 sky130_fd_pr__nfet_01v8 ad=0.143 pd=1.62 as=0 ps=0 w=0.55 l=0.59
X175 a_4751_3339# net2 VPWR.t110 VPWR.t109 sky130_fd_pr__pfet_01v8_hvt ad=0.0567 pd=0.69 as=0.1176 ps=1.4 w=0.42 l=0.15
X176 VPWR.t38 a_2879_2223# n[1].t5 VPWR.t37 sky130_fd_pr__pfet_01v8_hvt ad=0.14 pd=1.28 as=0.14 ps=1.28 w=1 l=0.15
X177 n[3].t5 a_5179_2223# VPWR.t208 VPWR.t66 sky130_fd_pr__pfet_01v8_hvt ad=0.14 pd=1.28 as=0.165 ps=1.33 w=1 l=0.15
X178 p[1].t1 a_5179_2767# VGND.t28 VGND.t27 sky130_fd_pr__nfet_01v8 ad=0.0588 pd=0.7 as=0.07035 ps=0.755 w=0.42 l=0.15
X179 net2 a_4312_5461# VGND.t85 VGND.t84 sky130_fd_pr__nfet_01v8 ad=0.08775 pd=0.92 as=0.17225 ps=1.83 w=0.65 l=0.15
X180 VGND.t20 a_2879_2223# n[1].t1 VGND.t19 sky130_fd_pr__nfet_01v8 ad=0.0588 pd=0.7 as=0.0588 ps=0.7 w=0.42 l=0.15
X181 n[0].t4 net1 VGND.t91 VGND.t90 sky130_fd_pr__nfet_01v8 ad=0.08775 pd=0.92 as=0.169 ps=1.82 w=0.65 l=0.15
X182 VPWR.t169 net1 a_2419_3677# VPWR.t168 sky130_fd_pr__pfet_01v8_hvt ad=0.0714 pd=0.76 as=0.1092 ps=1.36 w=0.42 l=0.15
X183 a_2599_3677# a_2419_3677# VPWR.t1 VPWR.t0 sky130_fd_pr__pfet_01v8_hvt ad=0.0609 pd=0.71 as=0.0714 ps=0.76 w=0.42 l=0.15
X184 n[3].t1 a_5179_2223# VGND.t211 VGND.t210 sky130_fd_pr__nfet_01v8 ad=0.0588 pd=0.7 as=0.07035 ps=0.755 w=0.42 l=0.15
X185 VGND.t128 VPWR.t245 VGND.t127 VGND.t126 sky130_fd_pr__nfet_01v8 ad=0.143 pd=1.62 as=0 ps=0 w=0.55 l=4.73
X186 VGND.t125 VPWR.t246 VGND.t124 VGND.t121 sky130_fd_pr__nfet_01v8 ad=0.143 pd=1.62 as=0 ps=0 w=0.55 l=0.59
X187 a_4903_5263# net1 VGND.t89 VGND.t88 sky130_fd_pr__nfet_01v8 ad=0.08775 pd=0.92 as=0.08775 ps=0.92 w=0.65 l=0.15
X188 VPWR.t137 _00_ a_2879_2223# VPWR.t136 sky130_fd_pr__pfet_01v8_hvt ad=0.165 pd=1.33 as=0.265 ps=2.53 w=1 l=0.15
X189 VGND.t16 _03_ a_5179_3311# VGND.t2 sky130_fd_pr__nfet_01v8 ad=0.07035 pd=0.755 as=0.1113 ps=1.37 w=0.42 l=0.15
X190 VPWR.t161 a_4312_5461# net2 VPWR.t160 sky130_fd_pr__pfet_01v8_hvt ad=0.149 pd=1.325 as=0.135 ps=1.27 w=1 l=0.15
X191 a_4903_5493# net1 VPWR.t167 VPWR.t166 sky130_fd_pr__pfet_01v8_hvt ad=0.1176 pd=1.4 as=0.1092 ps=1.36 w=0.42 l=0.15
X192 VPWR.t22 VGND.t244 VPWR.t21 VPWR.t20 sky130_fd_pr__pfet_01v8_hvt ad=0.2262 pd=2.26 as=0 ps=0 w=0.87 l=0.59
X193 a_2557_2767# net2 VPWR.t108 VPWR.t107 sky130_fd_pr__pfet_01v8_hvt ad=0.28 pd=2.56 as=0.135 ps=1.27 w=1 l=0.15
X194 n[1].t4 a_2879_2223# VPWR.t36 VPWR.t35 sky130_fd_pr__pfet_01v8_hvt ad=0.14 pd=1.28 as=0.14 ps=1.28 w=1 l=0.15
X195 a_4627_3127# net2 VPWR.t106 VPWR.t105 sky130_fd_pr__pfet_01v8_hvt ad=0.1176 pd=1.4 as=0.1092 ps=1.36 w=0.42 l=0.15
X196 p[3].t8 net1 VPWR.t165 VPWR.t164 sky130_fd_pr__pfet_01v8_hvt ad=0.135 pd=1.27 as=0.135 ps=1.27 w=1 l=0.15
X197 VPWR.t207 a_5179_2223# n[3].t4 VPWR.t64 sky130_fd_pr__pfet_01v8_hvt ad=0.14 pd=1.28 as=0.14 ps=1.28 w=1 l=0.15
X198 VGND.t26 a_5179_2767# p[1].t0 VGND.t25 sky130_fd_pr__nfet_01v8 ad=0.0588 pd=0.7 as=0.0588 ps=0.7 w=0.42 l=0.15
X199 VGND.t123 VPWR.t247 VGND.t122 VGND.t121 sky130_fd_pr__nfet_01v8 ad=0.143 pd=1.62 as=0 ps=0 w=0.55 l=0.59
X200 VPWR.t25 VGND.t245 VPWR.t24 VPWR.t23 sky130_fd_pr__pfet_01v8_hvt ad=0.2262 pd=2.26 as=0 ps=0 w=0.87 l=4.73
X201 _00_ a_2599_3677# VGND.t205 VGND.t204 sky130_fd_pr__nfet_01v8 ad=0.169 pd=1.82 as=0.1013 ps=0.99 w=0.65 l=0.15
X202 n[2].t4 a_4075_2767# VPWR.t75 VPWR.t74 sky130_fd_pr__pfet_01v8_hvt ad=0.14 pd=1.28 as=0.165 ps=1.33 w=1 l=0.15
X203 net1 a_2327_5487# VPWR.t152 VPWR.t151 sky130_fd_pr__pfet_01v8_hvt ad=0.135 pd=1.27 as=0.149 ps=1.325 w=1 l=0.15
X204 _05_ a_5095_5737# VPWR.t134 VPWR.t133 sky130_fd_pr__pfet_01v8_hvt ad=0.27 pd=2.54 as=0.14825 ps=1.34 w=1 l=0.15
X205 n[1].t0 a_2879_2223# VGND.t18 VGND.t17 sky130_fd_pr__nfet_01v8 ad=0.0588 pd=0.7 as=0.0588 ps=0.7 w=0.42 l=0.15
X206 VPWR.t102 net2 a_4842_2473# VPWR.t101 sky130_fd_pr__pfet_01v8_hvt ad=0.14575 pd=1.335 as=0.0441 ps=0.63 w=0.42 l=0.15
X207 VGND.t209 a_5179_2223# n[3].t0 VGND.t208 sky130_fd_pr__nfet_01v8 ad=0.0588 pd=0.7 as=0.0588 ps=0.7 w=0.42 l=0.15
R0 VPWR VPWR.t155 1719.47
R1 VPWR.t155 VPWR 1547.82
R2 VPWR VPWR.t68 975.178
R3 VPWR VPWR.t85 975.178
R4 VPWR.t68 VPWR 877.827
R5 VPWR.t85 VPWR 877.827
R6 VPWR.t26 VPWR.t71 816.822
R7 VPWR.n122 VPWR.t25 812.014
R8 VPWR.n20 VPWR.t84 804.731
R9 VPWR.n23 VPWR.t91 804.731
R10 VPWR.n497 VPWR.t87 804.731
R11 VPWR.n483 VPWR.t86 804.731
R12 VPWR.n497 VPWR.t93 804.731
R13 VPWR.n483 VPWR.t92 804.731
R14 VPWR.n442 VPWR.t70 804.731
R15 VPWR.n46 VPWR.t69 804.731
R16 VPWR.n442 VPWR.t214 804.731
R17 VPWR.n46 VPWR.t213 804.731
R18 VPWR.t10 VPWR.n39 804.731
R19 VPWR.n696 VPWR.t205 804.731
R20 VPWR.n501 VPWR.t45 804.731
R21 VPWR.n504 VPWR.t53 804.731
R22 VPWR.n571 VPWR.t51 804.731
R23 VPWR.n534 VPWR.t50 804.731
R24 VPWR.n532 VPWR.t149 804.731
R25 VPWR.n536 VPWR.t217 804.731
R26 VPWR.n141 VPWR.t148 804.731
R27 VPWR.n136 VPWR.t216 804.731
R28 VPWR.n93 VPWR.t24 804.731
R29 VPWR.n80 VPWR.t56 804.731
R30 VPWR.n83 VPWR.t98 804.731
R31 VPWR.n575 VPWR.t30 804.731
R32 VPWR.n578 VPWR.t8 804.731
R33 VPWR.n646 VPWR.t146 804.731
R34 VPWR.n160 VPWR.t145 804.731
R35 VPWR.n185 VPWR.t159 804.731
R36 VPWR.n188 VPWR.t143 804.731
R37 VPWR.n608 VPWR.t203 804.731
R38 VPWR.n611 VPWR.t22 804.731
R39 VPWR.n403 VPWR.t157 804.731
R40 VPWR.n378 VPWR.t156 804.731
R41 VPWR.t215 VPWR.t147 772.086
R42 VPWR.n41 VPWR.t10 751.692
R43 VPWR.t205 VPWR.n695 751.692
R44 VPWR.t84 VPWR.n19 725.173
R45 VPWR.t91 VPWR.n22 725.173
R46 VPWR.t45 VPWR.n500 725.173
R47 VPWR.t53 VPWR.n503 725.173
R48 VPWR.t56 VPWR.n79 725.173
R49 VPWR.t98 VPWR.n82 725.173
R50 VPWR.t30 VPWR.n574 725.173
R51 VPWR.t8 VPWR.n577 725.173
R52 VPWR.t159 VPWR.n184 725.173
R53 VPWR.t143 VPWR.n187 725.173
R54 VPWR.t203 VPWR.n607 725.173
R55 VPWR.t22 VPWR.n610 725.173
R56 VPWR.n344 VPWR.t167 701.529
R57 VPWR.n166 VPWR.t106 701.014
R58 VPWR.n115 VPWR.t110 671.408
R59 VPWR VPWR.t94 636.293
R60 VPWR.n197 VPWR.n194 604.076
R61 VPWR.n197 VPWR.n195 604.076
R62 VPWR.n636 VPWR.n268 603.106
R63 VPWR.n32 VPWR.n17 599.808
R64 VPWR.n71 VPWR.n70 599.808
R65 VPWR.n242 VPWR.n159 599.808
R66 VPWR.n591 VPWR.n570 599.159
R67 VPWR.n260 VPWR.n153 599.159
R68 VPWR.n562 VPWR.n530 585
R69 VPWR.n564 VPWR.n563 585
R70 VPWR.n251 VPWR.n250 585
R71 VPWR.n253 VPWR.n252 585
R72 VPWR.t166 VPWR.t135 568.225
R73 VPWR VPWR.t138 494.238
R74 VPWR.t162 VPWR 461.683
R75 VPWR.t94 VPWR 458.724
R76 VPWR.t57 VPWR 414.577
R77 VPWR.t46 VPWR 414.577
R78 VPWR.t12 VPWR.t82 404.505
R79 VPWR.t60 VPWR.t141 404.505
R80 VPWR.n693 VPWR.t206 389.521
R81 VPWR.n43 VPWR.t11 389.361
R82 VPWR.n666 VPWR.t59 388.656
R83 VPWR.n274 VPWR.t47 388.656
R84 VPWR.n605 VPWR.t48 388.656
R85 VPWR.n369 VPWR.t95 388.656
R86 VPWR.n372 VPWR.t96 388.656
R87 VPWR.n123 VPWR.t58 385.026
R88 VPWR.n418 VPWR.t139 381.443
R89 VPWR.n2 VPWR.t27 381.443
R90 VPWR.n324 VPWR.t28 381.443
R91 VPWR.n0 VPWR.t72 381.443
R92 VPWR.n726 VPWR.t73 381.443
R93 VPWR.n421 VPWR.t140 381.443
R94 VPWR.n18 VPWR.t83 380.193
R95 VPWR.n21 VPWR.t90 380.193
R96 VPWR.n499 VPWR.t44 380.193
R97 VPWR.n502 VPWR.t52 380.193
R98 VPWR.n78 VPWR.t55 380.193
R99 VPWR.n81 VPWR.t97 380.193
R100 VPWR.n573 VPWR.t29 380.193
R101 VPWR.n576 VPWR.t7 380.193
R102 VPWR.n183 VPWR.t158 380.193
R103 VPWR.n186 VPWR.t142 380.193
R104 VPWR.n606 VPWR.t202 380.193
R105 VPWR.n609 VPWR.t21 380.193
R106 VPWR.t133 VPWR 369.938
R107 VPWR VPWR.t153 366.978
R108 VPWR VPWR.t57 357.51
R109 VPWR.n77 VPWR.t188 344.06
R110 VPWR.n192 VPWR.t209 344.06
R111 VPWR.n261 VPWR.t42 344.06
R112 VPWR.n192 VPWR.t61 344.06
R113 VPWR.n230 VPWR.t77 344.06
R114 VPWR.n28 VPWR.t13 340.243
R115 VPWR.n29 VPWR.t120 338.488
R116 VPWR VPWR.t54 334.012
R117 VPWR VPWR.t26 322.587
R118 VPWR.n316 VPWR 322.587
R119 VPWR.t138 VPWR 322.587
R120 VPWR.n113 VPWR.n66 322.329
R121 VPWR.n36 VPWR.n35 320.976
R122 VPWR.n38 VPWR.n37 320.976
R123 VPWR.n33 VPWR.n16 320.976
R124 VPWR.n338 VPWR.n321 315.406
R125 VPWR.n417 VPWR.n286 312.053
R126 VPWR.n308 VPWR.n307 312.053
R127 VPWR.n169 VPWR.n168 312.005
R128 VPWR.n270 VPWR.n269 311.892
R129 VPWR.n173 VPWR.n172 311.659
R130 VPWR.n173 VPWR.n171 311.659
R131 VPWR.n215 VPWR.n214 311.519
R132 VPWR.n636 VPWR.n266 310.5
R133 VPWR.n705 VPWR.n34 308.151
R134 VPWR.n105 VPWR.n69 308.151
R135 VPWR.n273 VPWR.n272 308.151
R136 VPWR.n244 VPWR.n158 308.149
R137 VPWR.n451 VPWR.t222 306.735
R138 VPWR.n451 VPWR.t236 306.735
R139 VPWR.n489 VPWR.t224 306.735
R140 VPWR.n489 VPWR.t241 306.735
R141 VPWR.n667 VPWR.t229 306.735
R142 VPWR.n107 VPWR.t218 306.735
R143 VPWR.n142 VPWR.t237 306.735
R144 VPWR.n556 VPWR.t231 306.735
R145 VPWR.n156 VPWR.t235 306.735
R146 VPWR.n380 VPWR.t245 306.735
R147 VPWR.t199 VPWR.t115 298.764
R148 VPWR.t31 VPWR.t179 298.764
R149 VPWR.t111 VPWR.t133 290.031
R150 VPWR.t211 VPWR.t160 281.154
R151 VPWR.t151 VPWR.t99 281.154
R152 VPWR VPWR.t43 280.3
R153 VPWR VPWR.t6 280.3
R154 VPWR VPWR.t20 278.623
R155 VPWR VPWR.t204 260.159
R156 VPWR.n287 VPWR.t154 249.363
R157 VPWR.n364 VPWR.t163 249.363
R158 VPWR.t160 VPWR.t162 248.599
R159 VPWR.t153 VPWR.t151 248.599
R160 VPWR.n697 VPWR.t175 246.817
R161 VPWR.n19 VPWR.t240 245.667
R162 VPWR.n22 VPWR.t223 245.667
R163 VPWR.n500 VPWR.t244 245.667
R164 VPWR.n503 VPWR.t227 245.667
R165 VPWR.n79 VPWR.t230 245.667
R166 VPWR.n82 VPWR.t247 245.667
R167 VPWR.n574 VPWR.t233 245.667
R168 VPWR.n577 VPWR.t220 245.667
R169 VPWR.n184 VPWR.t246 245.667
R170 VPWR.n187 VPWR.t238 245.667
R171 VPWR.n607 VPWR.t219 245.667
R172 VPWR.n610 VPWR.t242 245.667
R173 VPWR.n420 VPWR.t234 242.282
R174 VPWR.n322 VPWR.t228 242.282
R175 VPWR.n727 VPWR.t232 242.282
R176 VPWR.t71 VPWR 221.964
R177 VPWR.n316 VPWR 219.004
R178 VPWR.n41 VPWR.t226 215.827
R179 VPWR.n695 VPWR.t221 214.929
R180 VPWR.n166 VPWR.n165 213.119
R181 VPWR.n349 VPWR.n316 213.119
R182 VPWR.t135 VPWR.t111 213.084
R183 VPWR.n370 VPWR.t243 210.964
R184 VPWR.n689 VPWR.n45 210.55
R185 VPWR.t88 VPWR 209.806
R186 VPWR.n121 VPWR.n63 209.368
R187 VPWR.t23 VPWR 203.093
R188 VPWR VPWR.t215 203.093
R189 VPWR VPWR.t49 203.093
R190 VPWR VPWR.t144 203.093
R191 VPWR.t99 VPWR 192.369
R192 VPWR VPWR.t166 189.409
R193 VPWR.t43 VPWR 182.952
R194 VPWR.n63 VPWR 182.952